15

S         -1.81050       -1.35560        0.00000
C         -0.24250        0.70030        0.00000
C         -0.21650       -0.69770        0.00000
C          0.99250        1.39270        0.00000
C         -1.59010        1.19470        0.00000
C          0.99780       -1.41180        0.00000
C          2.19880        0.68740        0.00000
C          2.19900       -0.70030        0.00000
C         -2.52850        0.19030        0.00000
H          1.00860        2.47990       -0.00010
H         -1.85330        2.24530        0.00000
H          1.00760       -2.49810       -0.00010
H          3.13990        1.23010        0.00000
H          3.14200       -1.24020        0.00010
H         -3.60430        0.29510        0.00000
