21

S          0.00000       -2.07520        0.00040
C          0.72570        0.39770        0.00040
C         -0.72570        0.39770        0.00030
C          1.24670       -0.89710        0.00020
C         -1.24670       -0.89720        0.00010
C          1.64520        1.47920        0.00020
C         -1.64520        1.47920        0.00020
C          2.63560       -1.13730       -0.00020
C         -2.63570       -1.13740       -0.00010
C          3.02300        1.24620        0.00000
C         -3.02290        1.24630       -0.00010
C          3.51130       -0.05110       -0.00060
C         -3.51130       -0.05100       -0.00060
H          1.28300        2.50460        0.00030
H         -1.28300        2.50460        0.00030
H          3.02670       -2.15100       -0.00040
H         -3.02680       -2.15100       -0.00030
H          3.71160        2.08620       -0.00010
H         -3.71160        2.08630       -0.00030
H          4.58380       -0.22570       -0.00110
H         -4.58380       -0.22560       -0.00090
